        12
Translated Molecule
   C1    0.36250   -0.62787    1.25574
   H1    0.61250   -1.06088    2.12176
   C2   -0.79181    0.15946    1.17433
   H2   -1.36655    0.28893    1.98233
   C3   -1.16681    0.80898   -0.12471
   H3   -1.99155    1.37147   -0.18273
   C4   -0.36250    0.62787   -1.25574
   H4   -0.61250    1.06088   -2.12176
   C5    0.79181   -0.15946   -1.17433
   H5    1.36655   -0.28893   -1.98233
   C6    1.16681   -0.80898    0.12471
   H6    1.99155   -1.37147    0.18273
